Version 4
SHEET 1 1984 1360
WIRE 1296 32 336 32
WIRE 512 64 240 64
WIRE 592 64 512 64
WIRE 144 112 0 112
WIRE 784 112 144 112
WIRE 1024 112 784 112
WIRE 1136 112 1024 112
WIRE 1344 112 1136 112
WIRE 1024 144 1024 112
WIRE 1136 144 1136 112
WIRE 784 160 784 112
WIRE 144 176 144 112
WIRE 240 176 240 64
WIRE 336 176 336 32
WIRE 592 176 592 128
WIRE 0 240 0 112
WIRE 48 240 0 240
WIRE 736 240 432 240
WIRE 1024 256 1024 208
WIRE 1136 256 1136 208
WIRE 1344 256 1344 192
WIRE 512 272 512 64
WIRE 656 304 608 304
WIRE 512 336 432 336
WIRE 608 336 608 304
WIRE 608 336 512 336
WIRE 784 368 784 256
WIRE 784 368 656 368
WIRE 1088 400 944 400
WIRE 1232 400 1200 400
WIRE 1296 400 1296 32
WIRE 1296 400 1232 400
WIRE 1360 400 1296 400
WIRE 1424 400 1360 400
WIRE 1488 400 1424 400
WIRE 1584 400 1488 400
WIRE 784 432 784 368
WIRE 784 432 432 432
WIRE 944 432 944 400
WIRE 944 432 784 432
WIRE 1360 432 1360 400
WIRE 1424 432 1424 400
WIRE 1488 432 1488 400
WIRE 784 448 784 432
WIRE 0 480 -112 480
WIRE 1232 480 1088 480
WIRE 0 528 0 480
WIRE 48 528 0 528
WIRE 736 528 432 528
WIRE 1360 528 1360 496
WIRE 1424 528 1424 496
WIRE 1488 528 1488 496
WIRE 1584 528 1584 480
WIRE 1296 576 1296 400
WIRE 784 592 784 544
WIRE -112 608 -112 560
WIRE 576 624 432 624
WIRE 1232 624 1232 480
WIRE 1232 624 576 624
WIRE 576 640 576 624
WIRE 0 672 -112 672
WIRE 0 720 0 672
WIRE 48 720 0 720
WIRE 576 720 576 704
WIRE 576 720 432 720
WIRE 1200 720 1200 400
WIRE 1200 720 576 720
WIRE -112 768 -112 736
WIRE -160 816 -224 816
WIRE -32 816 -128 816
WIRE 48 816 -32 816
WIRE 1296 816 1296 656
WIRE 1296 816 432 816
WIRE 1296 832 1296 816
WIRE -160 896 -160 816
WIRE -128 896 -160 896
WIRE -224 928 -224 880
WIRE -32 928 -32 880
WIRE 160 928 160 880
WIRE 320 928 320 880
WIRE 1296 976 1296 912
FLAG 1344 256 0
FLAG 784 592 0
FLAG 592 176 0
FLAG 1584 528 0
FLAG 1296 976 0
FLAG 320 928 0
FLAG 160 928 0
FLAG -112 608 0
FLAG -112 768 0
FLAG -32 928 0
FLAG -224 928 0
FLAG 1136 256 0
FLAG 1024 256 0
FLAG 1360 528 0
FLAG 1424 528 0
FLAG 1488 528 0
SYMBOL PowerProducts/LTC3891 240 528 R0
SYMATTR InstName U1
SYMBOL Misc/battery 1344 96 R0
SYMATTR InstName V1
SYMATTR Value 24V
SYMBOL nmos 736 160 R0
SYMATTR InstName M1
SYMATTR Value BSC027N04LS
SYMBOL nmos 736 448 R0
SYMATTR InstName M2
SYMATTR Value BSC027N04LS
SYMBOL schottky 496 272 R0
SYMATTR InstName D1
SYMATTR Value DFLS220L
SYMATTR Description Zener Diode
SYMATTR Type zener
SYMBOL cap 576 64 R0
SYMATTR InstName C1
SYMATTR Value 2.2µ
SYMBOL cap 640 304 R0
SYMATTR InstName C2
SYMATTR Value 0.1µ
SYMBOL ind 1072 384 R0
SYMATTR InstName L1
SYMATTR Value 4.7µ
SYMATTR SpiceLine Rser=1.25m
SYMBOL res 1216 384 R0
SYMATTR InstName R1
SYMATTR Value 5m
SYMBOL res 1568 384 R0
SYMATTR InstName R2
SYMATTR Value 1
SYMBOL res 1280 560 R0
SYMATTR InstName R3
SYMATTR Value 43k
SYMBOL res 1280 816 R0
SYMATTR InstName R4
SYMATTR Value 8.2k
SYMBOL res -128 464 R0
SYMATTR InstName R5
SYMATTR Value 37.5k
SYMBOL cap -128 672 R0
SYMATTR InstName C3
SYMATTR Value 0.1µ
SYMBOL cap -48 816 R0
SYMATTR InstName C4
SYMATTR Value 100p
SYMBOL cap -240 816 R0
SYMATTR InstName C5
SYMATTR Value 2200p
SYMBOL res -144 800 R0
SYMATTR InstName R6
SYMATTR Value 10k
SYMBOL cap 1008 144 R0
SYMATTR InstName C6
SYMATTR Value 10µ
SYMATTR SpiceLine Rser=0.007
SYMBOL cap 1120 144 R0
SYMATTR InstName C7
SYMATTR Value 10µ
SYMBOL cap 1344 432 R0
SYMATTR InstName C8
SYMATTR Value 10µ
SYMBOL cap 1408 432 R0
SYMATTR InstName C9
SYMATTR Value 150µ
SYMBOL cap 1472 432 R0
SYMATTR InstName C10
SYMATTR Value 150µ
SYMBOL cap 560 640 R0
SYMATTR InstName C11
SYMATTR Value 2.2p
TEXT 488 880 Left 2 !.tran 10m startup
